Version 4
SHEET 1 1588 680
WIRE -48 -464 -48 -496
WIRE -48 -368 -48 -384
WIRE -48 -272 -48 -288
WIRE 96 -272 -48 -272
WIRE -48 -256 -48 -272
WIRE 96 -256 96 -272
WIRE -48 -160 -48 -176
WIRE -48 -48 -48 -80
WIRE 64 16 -32 16
WIRE 176 16 144 16
WIRE 240 16 176 16
WIRE 352 16 320 16
WIRE 176 112 176 16
WIRE 192 112 176 112
WIRE 352 128 352 16
WIRE 352 128 256 128
WIRE 640 128 352 128
WIRE 912 128 736 128
WIRE 192 144 176 144
WIRE 640 160 608 160
WIRE 784 160 736 160
WIRE 608 208 608 160
WIRE 784 208 784 160
WIRE 64 240 32 240
WIRE 176 240 176 144
WIRE 176 240 144 240
WIRE 240 240 176 240
WIRE 400 240 320 240
WIRE 912 240 912 128
WIRE -368 288 -400 288
WIRE -256 288 -288 288
WIRE 32 288 32 240
WIRE 32 288 -192 288
WIRE -400 304 -400 288
WIRE 32 336 32 288
WIRE 64 336 32 336
WIRE 176 336 144 336
WIRE 240 336 176 336
WIRE 352 336 320 336
WIRE -400 416 -400 384
WIRE 176 432 176 336
WIRE 192 432 176 432
WIRE 352 448 352 336
WIRE 352 448 256 448
WIRE 608 448 352 448
WIRE 912 448 912 320
WIRE 912 448 704 448
WIRE 192 464 176 464
WIRE 608 480 576 480
WIRE 752 480 704 480
WIRE 576 528 576 480
WIRE 752 528 752 480
WIRE -32 560 -32 16
WIRE 64 560 -32 560
WIRE 176 560 176 464
WIRE 176 560 144 560
WIRE 240 560 176 560
WIRE 400 560 400 240
WIRE 400 560 320 560
WIRE -32 608 -32 560
WIRE 400 608 400 560
FLAG 96 -256 0
FLAG -48 -496 Vcc
FLAG 224 96 Vcc
FLAG -48 -48 Vss
FLAG 224 160 Vss
FLAG 224 416 Vcc
FLAG 224 480 Vss
FLAG -400 416 0
FLAG -32 608 0
FLAG 400 608 0
FLAG 784 208 0
FLAG 608 208 0
FLAG 752 528 0
FLAG 576 528 0
SYMBOL voltage -48 -384 R0
WINDOW 123 0 0 Left 0
WINDOW 39 0 0 Left 0
SYMATTR InstName V1
SYMATTR Value 3.3
SYMBOL voltage -48 -272 R0
WINDOW 123 0 0 Left 0
WINDOW 39 0 0 Left 0
SYMATTR InstName V2
SYMATTR Value 3.3
SYMBOL OpAmps\\OP07 224 64 R0
SYMATTR InstName U1
SYMBOL res 160 0 R90
WINDOW 0 0 56 VBottom 2
WINDOW 3 32 56 VTop 2
SYMATTR InstName R1
SYMATTR Value 12k
SYMBOL res 336 0 R90
WINDOW 0 0 56 VBottom 2
WINDOW 3 32 56 VTop 2
SYMATTR InstName R2
SYMATTR Value 6k
SYMBOL res 160 224 R90
WINDOW 0 0 56 VBottom 2
WINDOW 3 32 56 VTop 2
SYMATTR InstName R3
SYMATTR Value 12k
SYMBOL res 336 224 R90
WINDOW 0 0 56 VBottom 2
WINDOW 3 32 56 VTop 2
SYMATTR InstName R4
SYMATTR Value 6k
SYMBOL OpAmps\\OP07 224 384 R0
SYMATTR InstName U2
SYMBOL res 160 320 R90
WINDOW 0 0 56 VBottom 2
WINDOW 3 32 56 VTop 2
SYMATTR InstName R5
SYMATTR Value 12k
SYMBOL res 336 320 R90
WINDOW 0 0 56 VBottom 2
WINDOW 3 32 56 VTop 2
SYMATTR InstName R6
SYMATTR Value 6k
SYMBOL res 160 544 R90
WINDOW 0 0 56 VBottom 2
WINDOW 3 32 56 VTop 2
SYMATTR InstName R7
SYMATTR Value 12k
SYMBOL res 336 544 R90
WINDOW 0 0 56 VBottom 2
WINDOW 3 32 56 VTop 2
SYMATTR InstName R8
SYMATTR Value 6k
SYMBOL voltage -400 288 R0
WINDOW 123 24 124 Left 2
WINDOW 39 0 0 Left 0
SYMATTR Value2 AC 0.355
SYMATTR InstName V3
SYMATTR Value SINE(0.8 0.5 1k)
SYMBOL cap -192 272 R90
WINDOW 0 0 32 VBottom 2
WINDOW 3 32 32 VTop 2
SYMATTR InstName C1
SYMATTR Value 22µ
SYMBOL res 896 224 R0
SYMATTR InstName R9
SYMATTR Value 600
SYMBOL res -272 272 R90
WINDOW 0 0 56 VBottom 2
WINDOW 3 32 56 VTop 2
SYMATTR InstName R10
SYMATTR Value 200
SYMBOL voltage -48 -368 R180
WINDOW 0 24 96 Left 2
WINDOW 3 24 16 Left 2
WINDOW 123 0 0 Left 0
WINDOW 39 0 0 Left 0
SYMATTR InstName V4
SYMATTR Value 1.8
SYMBOL voltage -48 -64 R180
WINDOW 0 24 96 Left 2
WINDOW 3 24 16 Left 2
WINDOW 123 0 0 Left 0
WINDOW 39 0 0 Left 0
SYMATTR InstName V5
SYMATTR Value 1.8
SYMBOL ltline 688 144 R0
SYMATTR InstName O1
SYMATTR Value MyLossyTline
SYMBOL ltline 656 464 R0
SYMATTR InstName O2
SYMATTR Value MyLossyTline
TEXT -432 632 Left 2 !;.tran 2m
TEXT -440 656 Left 2 !.ac dec 10 1 100k
TEXT 968 144 Left 2 !.model MyLossyTline LTRA(len=1 R=10 L=1u C=10n)
